---- qbsp / ericw-tools v0.18.1 ----
Input file: GOROTH.map
Output file: GOROTH.bsp

---- LoadMapFile ----
*** WARNING 06: No info_player_deathmatch entities in level
          494 faces
           78 brushes
           19 entities
            5 unique texnames
           19 texinfo

Opened WAD: gfx/id1.wad
Processing hull 0...
---- Brush_LoadEntity ----
           78 brushes
          182 planes
---- CSGFaces ----
          494 brushfaces
          581 csgfaces
          432 mergedfaces
---- SolidBSP ----
          413 split nodes
          130 solid leafs
          213 empty leafs
           71 water leafs
            0 detail leafs
            0 detail illusionary leafs
            0 detail fence leafs
            0 illusionary visblocker leafs
         1990 leaffaces
         1793 nodefaces
---- Portalize ----
          284 vis leafs
          284 vis clusters
          779 vis portals
---- FillOutside ----
           97 outleafs
---- MergeAll ----
          417 mergefaces
---- SolidBSP ----
          305 split nodes
          143 solid leafs
          103 empty leafs
           60 water leafs
            0 detail leafs
            0 detail illusionary leafs
            0 detail fence leafs
            0 illusionary visblocker leafs
         1222 leaffaces
         1053 nodefaces
---- Portalize ----
          163 vis leafs
          163 vis clusters
          485 vis portals
---- Tjunc ----
          868 world edges
         3102 edge points
          857 edges added by tjunctions
            0 faces added by tjunctions
---- MakeFaceEdges ----
---- GrowRegions ----
Processing hull 1...
Processing hull 2...
---- WriteBSPFile ----
Wrote GOROTH.bsp
          408 planes             8160
         1246 vertexes          14952
          305 nodes              7320
           16 texinfo             640
         1053 faces             21060
          589 clipnodes          4712
          164 leafs              4592
         1222 marksurfaces       2444
         5086 surfedges         20344
         2544 edges             10176
            5 textures          81824
              lightdata             0
              visdata               0
              entdata            1141

0.065 seconds elapsed
Peak memory usage: 5580004 (5.3M)
