---- qbsp / ericw-tools v0.18.1 ----
Input file: TEST.map
Output file: TEST.bsp

---- LoadMapFile ----
*** WARNING 06: No info_player_deathmatch entities in level
           36 faces
            6 brushes
            3 entities
            3 unique texnames
           18 texinfo

Opened WAD: gfx/id1.wad
Processing hull 0...
---- Brush_LoadEntity ----
            6 brushes
           12 planes
---- CSGFaces ----
           36 brushfaces
           36 csgfaces
           36 mergedfaces
---- SolidBSP ----
           24 split nodes
            6 solid leafs
           19 empty leafs
            0 water leafs
            0 detail leafs
            0 detail illusionary leafs
            0 detail fence leafs
            0 illusionary visblocker leafs
          180 leaffaces
          180 nodefaces
---- Portalize ----
           19 vis leafs
           19 vis clusters
           40 vis portals
---- FillOutside ----
           18 outleafs
---- MergeAll ----
            6 mergefaces
---- SolidBSP ----
            6 split nodes
            6 solid leafs
            1 empty leafs
            0 water leafs
            0 detail leafs
            0 detail illusionary leafs
            0 detail fence leafs
            0 illusionary visblocker leafs
           54 leaffaces
           54 nodefaces
---- Portalize ----
            1 vis leafs
            1 vis clusters
            0 vis portals
---- Tjunc ----
           36 world edges
          152 edge points
           16 edges added by tjunctions
            0 faces added by tjunctions
---- MakeFaceEdges ----
---- GrowRegions ----
Processing hull 1...
*** WARNING 19: No entities in empty space -- no filling performed (hull 1)
Processing hull 2...
*** WARNING 19: No entities in empty space -- no filling performed (hull 2)
---- WriteBSPFile ----
Wrote TEST.bsp
           35 planes              700
           64 vertexes            768
            6 nodes               144
            6 texinfo             240
           54 faces              1080
          112 clipnodes           896
            2 leafs                56
           54 marksurfaces        108
          232 surfedges           928
          117 edges               468
            3 textures          32776
              lightdata             0
              visdata               0
              entdata             233

0.007 seconds elapsed
Peak memory usage: 605916 (0.6M)
