---- qbsp / ericw-tools v0.18.1 ----
Input file: VOLKERH.map
Output file: VOLKERH.bsp

---- LoadMapFile ----
*** WARNING 06: No info_player_deathmatch entities in level
          652 faces
          100 brushes
           46 entities
            5 unique texnames
          123 texinfo

Opened WAD: C:/QUAKEDEV/qcc/maps/gfx/quake101.wad
Processing hull 0...
---- Brush_LoadEntity ----
           98 brushes
          140 planes
---- CSGFaces ----
          640 brushfaces
          479 csgfaces
          448 mergedfaces
---- SolidBSP ----
          548 split nodes
          154 solid leafs
          349 empty leafs
           46 water leafs
            0 detail leafs
            0 detail illusionary leafs
            0 detail fence leafs
            0 illusionary visblocker leafs
         1394 leaffaces
         1318 nodefaces
---- Portalize ----
          395 vis leafs
          395 vis clusters
         1262 vis portals
---- FillOutside ----
*** WARNING 10: Reached occupant at (384 384 -1016), no filling performed.
Leak file written to VOLKERH.pts
---- MakeFaceEdges ----
---- GrowRegions ----
Processing hull 1...
Processing hull 2...
---- WriteBSPFile ----
Wrote VOLKERH.bsp
          505 planes            10100
         1725 vertexes          20700
          560 nodes             13440
          118 texinfo            4720
         1576 faces             31520
         1101 clipnodes          8808
          408 leafs             11424
         1652 marksurfaces       3304
         6274 surfedges         25096
         3856 edges             15424
            5 textures         125344
              lightdata             0
              visdata               0
              entdata            2991

0.082 seconds elapsed
Peak memory usage: 9332036 (8.9M)
